# Styles
	units        metal
	atom_style   atomic
	pair_style   eam/fs

# Neighbour list
	neighbor        2.0 bin
	neigh_modify    check yes

# Boundary conditions
	boundary p p p

# ----------------- Atom Definition Section -----------------

read_data "W-Mo_2000K.data"
Reading data file ...
  orthogonal box = (-0.28465544 -0.23864789 -0.54550599) to (31.934655 31.888648 79.670506)
  reading atom labelmap ...
  reading atoms ...
  5000 atoms
  reading velocities ...
  5000 velocities

# ----------------- Settings Section -----------------

include "test.in.settings"
# ----- SETTINGS -----
# Forcefield
	pair_coeff * * W-Mo.eam.fs W Mo

# Collection of atoms
	group alloy type  1 2
5000 atoms in group alloy

# ----------------- Run Section -----------------

include "test.in.run"
# Thermo output
	compute msd all msd
	compute pot_eng_atom all pe/atom
	compute pot_eng all reduce sum c_pot_eng_atom
	compute kin_eng all ke

	thermo          500
	thermo_style    custom step temp press pe ke etotal vol density enthalpy c_pot_eng c_kin_eng c_msd[1] c_msd[2] c_msd[3]
	thermo_modify   flush yes

	dump            d1 all custom 50000 test_W-Mo.dump id type element x y z xu yu zu vx vy vz
	dump_modify     d1 element W Mo

# ----- HEATING FROM Ti TO Thigh -----

	fix             fheat_iso all npt temp 2000 6000 0.1 iso 1 1 1
	run             2000000   # 2 ns
Step          Temp          Press          PotEng         KinEng         TotEng         Volume        Density        Enthalpy      c_pot_eng      c_kin_eng       c_msd[1]       c_msd[2]       c_msd[3]
0   2046.6096      5217.09       -37941.552      1322.4607     -36619.091      83033.145      13.995488     -36348.714     -37941.552      1322.4607      0              0              0
Averages over the last 2001 of 4001 rows, steps 1000000 to 2000000:
Temp Press PotEng KinEng TotEng Volume Density Enthalpy c_pot_eng c_kin_eng c_msd[1] c_msd[2] c_msd[3]
4998.97 -15.774 -33340.8 3230.19 -30110.6 94181.7 12.3754 -30111.7 -33340.8 3230.19 391.771 417.655 383.54
Loop time of 1201.06 on 40 procs for 2000000 steps with 5000 atoms

	unfix           fheat_iso

# ----- HOLD AT Thigh -----
	fix             fholdhigh all npt temp 6000 6000 0.1 iso 1 1 1
	run             1000000   # 1 ns
Step          Temp          Press          PotEng         KinEng         TotEng         Volume        Density        Enthalpy      c_pot_eng      c_kin_eng       c_msd[1]       c_msd[2]       c_msd[3]
2000000   6014.461       1096.432      -31245.14       3886.3731     -27358.767      101031.63      11.502234     -27289.627     -31245.14       3886.3731      1402.9056      1459.805       1335.3481
Averages over the last 1001 of 2001 rows, steps 2500000 to 3000000:
Temp Press PotEng KinEng TotEng Volume Density Enthalpy c_pot_eng c_kin_eng c_msd[1] c_msd[2] c_msd[3]
6002.19 -29.093 -31211.3 3878.45 -27332.9 101456 11.4544 -27335.2 -31211.3 3878.45 3670.39 3803.35 3498.55
Loop time of 510.21 on 40 procs for 1000000 steps with 5000 atoms

	unfix           fholdhigh

# ----- FINAL OUTPUT -----
	write_data      W-Mo_6000K.data
System init for write_data ...
