# Styles
	units        metal
	atom_style   atomic
	pair_style   eam/fs

# Neighbour list
	neighbor        2.0 bin
	neigh_modify    check yes

# Boundary conditions
	boundary p p p

# ----------------- Atom Definition Section -----------------

read_data "W-Mo_2000K.data"
Reading data file ...
  orthogonal box = (-0.28465544 -0.23864789 -0.54550599) to (31.934655 31.888648 79.670506)
  reading atom labelmap ...
  reading atoms ...
  5000 atoms
  reading velocities ...
  5000 velocities

# ----------------- Settings Section -----------------

include "test.in.settings"
# ----- SETTINGS -----
# Forcefield
	pair_coeff * * W-Mo.eam.fs W Mo

# Collection of atoms
	group alloy type  1 2
5000 atoms in group alloy

# ----------------- Run Section -----------------

include "test.in.run"
# Thermo output
	compute msd all msd

	#thermo          1000
	#thermo_style    custom step temp press pe ke etotal vol density enthalpy c_msd[1] c_msd[2] c_msd[3]
	#thermo_modify   flush yes

# Dump configuration
	#dump            d1 all custom 50000 test_W-Mo.dump id type element x y z xu yu zu vx vy vz
	#dump_modify     d1 element W Mo

# ----- HEATING FROM 300K TO Ti -----
	#run             500000   # 0.5 ns
	#unfix           fheat_0

#write_data W-Mo_2000K.data nocoeff

# ----- HEATING FROM Ti TO Thigh -----
	compute in_ene_atom all pe/atom
	compute in_ene all reduce sum c_in_ene_atom

	thermo          500
	thermo_style    custom step temp press pe ke etotal vol density enthalpy c_in_ene c_msd[1] c_msd[2] c_msd[3]
	thermo_modify   flush yes

	dump            d1 all custom 50000 test_W-Mo.dump id type element x y z xu yu zu vx vy vz
	dump_modify     d1 element W Mo

	fix             fheat all npt temp 2000 6000 0.1 aniso 1 1 1
	run             2000000   # 2 ns
Step          Temp          Press          PotEng         KinEng         TotEng         Volume        Density        Enthalpy       c_in_ene       c_msd[1]       c_msd[2]       c_msd[3]
0   2046.6096      5217.09       -37941.552      1322.4607     -36619.091      83033.145      13.995488     -36348.714     -37941.552      0              0              0
Averages over the last 2001 of 4001 rows, steps 1000000 to 2000000:
Temp Press PotEng KinEng TotEng Volume Density Enthalpy c_in_ene c_msd[1] c_msd[2] c_msd[3]
5000.29 -67.7221 -33315.6 3231.04 -30084.6 94257.5 12.365 -30089.4 -33315.6 429.806 383.745 456.747
Loop time of 1243.74 on 40 procs for 2000000 steps with 5000 atoms

	unfix           fheat

# ----- HOLD AT Thigh -----
	fix             fholdhigh all npt temp 6000 6000 0.1 aniso 1 1 1
	run             1000000   # 1 ns
Step          Temp          Press          PotEng         KinEng         TotEng         Volume        Density        Enthalpy       c_in_ene       c_msd[1]       c_msd[2]       c_msd[3]
2000000   6027.4983     -480.64378     -31283.22       3894.7974     -27388.423      101184.19      11.48489      -27418.777     -31283.22       1608.5723      1115.2906      1796.8136
Averages over the last 1001 of 2001 rows, steps 2500000 to 3000000:
Temp Press PotEng KinEng TotEng Volume Density Enthalpy c_in_ene c_msd[1] c_msd[2] c_msd[3]
6000.1 32.9616 -31205.6 3877.09 -27328.5 101482 11.4514 -27327 -31205.6 3125.86 6588.93 3092.62
Loop time of 624.67 on 40 procs for 1000000 steps with 5000 atoms

	unfix           fholdhigh

# ----- FINAL OUTPUT -----
	write_data      W-Mo_5000K.data
System init for write_data ...
