# Styles
	units        metal
	atom_style   atomic
	pair_style   eam/fs

# Neighbour list
	neighbor        2.0 bin
	neigh_modify    check yes

# Boundary conditions
	boundary p p p

# ----------------- Atom Definition Section -----------------

read_data "en_min_W-Mo.data"
Reading data file ...
  orthogonal box = (0.046127475 0.046127475 0.11531869) to (31.603873 31.603873 79.009681)
  reading atom labelmap ...
  reading atoms ...
  5000 atoms
  reading velocities ...
  5000 velocities

# ----------------- Settings Section -----------------

include "liquid.in.settings"
# ----- SETTINGS -----
# Forcefield
	pair_coeff * * W-Mo.eam.fs W Mo

# Collection of atoms
	group alloy type  1 2
5000 atoms in group alloy

# ----------------- Run Section -----------------

include "liquid.in.run"
# Thermo output
	compute msd all msd
	compute myRDF all rdf 50

	fix 1 all ave/time 500 1 500 c_myRDF[*] file RDF.txt mode vector

	thermo          1000
	thermo_style    custom step temp press pe ke etotal vol density enthalpy c_msd[1] c_msd[2] c_msd[3]
	thermo_modify   flush yes

# Dump configuration
	dump            d1 all custom 50000 annealed_W-Mo.dump id type element x y z xu yu zu vx vy vz
	dump_modify     d1 element W Mo

# ----- INITIAL EQUILIBRATION AT Ti -----
	velocity        all create 300 872392 dist gaussian
	fix             feq all npt temp 300 300 0.1 aniso 1 1 1
	run             200000    # 200 ps
Step          Temp          Press          PotEng         KinEng         TotEng         Volume        Density        Enthalpy       c_msd[1]       c_msd[2]       c_msd[3]
0   300            2635.34       -39329.129      193.85144     -39135.277      78570.207      14.790458     -39006.041      0              0              0
Averages over the last 101 of 201 rows, steps 100000 to 200000:
Temp Press PotEng KinEng TotEng Volume Density Enthalpy c_msd[1] c_msd[2] c_msd[3]
299.841 182.115 -39132.6 193.749 -38938.8 79556.6 14.6071 -38929.8 0.00426626 0.00417537 0.0121896
Loop time of 109.343 on 40 procs for 200000 steps with 5000 atoms

	unfix           feq

write_data	solid.data nocoeff
System init for write_data ...

# ----- HEATING FROM Ti TO Thigh -----
	fix             fheat all nvt temp 300 6000 0.1
	run             2000000   # 2 ns
Step          Temp          Press          PotEng         KinEng         TotEng         Volume        Density        Enthalpy       c_msd[1]       c_msd[2]       c_msd[3]
200000   299.68049     -2065.0543     -39131.528      193.64498     -38937.883      79629.446      14.593714     -39040.518      0.0040741224   0.0044780169   0.015819125
Averages over the last 1001 of 2001 rows, steps 1200000 to 2200000:
Temp Press PotEng KinEng TotEng Volume Density Enthalpy c_msd[1] c_msd[2] c_msd[3]
4575.14 218744 -35812.1 2956.33 -32855.8 79629.4 14.5937 -21984 0.82513 0.848288 0.831463
Loop time of 1105.04 on 40 procs for 2000000 steps with 5000 atoms

	unfix           fheat

# ----- HOLD AT Thigh -----
	fix             fholdhigh all nvt temp 6000 6000 0.1
	run             1000000   # 1 ns
Step          Temp          Press          PotEng         KinEng         TotEng         Volume        Density        Enthalpy       c_msd[1]       c_msd[2]       c_msd[3]
2200000   5995.7187      334355.17     -32405.649      3874.2623     -28531.387      79629.446      14.593714     -11913.669      34.839977      39.231199      34.212262
Averages over the last 501 of 1001 rows, steps 2700000 to 3200000:
Temp Press PotEng KinEng TotEng Volume Density Enthalpy c_msd[1] c_msd[2] c_msd[3]
5999.02 332578 -32469.9 3876.39 -28593.5 79629.4 14.5937 -12064.1 1079.15 1099.96 1009.14
Loop time of 639.784 on 40 procs for 1000000 steps with 5000 atoms

	unfix           fholdhigh

write_data	liquid.data nocoeff
System init for write_data ...
