# Styles
	units        metal
	atom_style   atomic
	pair_style   eam/fs

# Neighbour list
	neighbor        2.0 bin
	neigh_modify    check yes

# Boundary conditions
	boundary p p p

# ----------------- Atom Definition Section -----------------

read_data "solid.data"
Reading data file ...
  orthogonal box = (-0.016319894 -0.026116788 -0.077393605) to (31.66632 31.676117 79.202394)
  reading atom labelmap ...
  reading atoms ...
  5000 atoms
  reading velocities ...
  5000 velocities

read_data "liquid.data" add append shift 37 0 0
Reading data file ...
  orthogonal box = (-0.016319894 -0.026116788 -0.077393605) to (68.66632 31.676117 79.202394)
  reading atom labelmap ...
  reading atoms ...
  5000 atoms
  reading velocities ...
  5000 velocities

# ----------------- Settings Section -----------------

include "coexistence.in.settings"
# ----- SETTINGS -----
# Forcefield
	pair_coeff * * W-Mo.eam.fs W Mo

# Collection of atoms
	group alloy type  1 2
10000 atoms in group alloy

# ----------------- Run Section -----------------

include "coexistence.in.run"
# Thermo output
	compute msd all msd

	thermo          1000
	thermo_style    custom step temp press pe ke etotal vol density enthalpy c_msd[1] c_msd[2] c_msd[3]
	thermo_modify   flush yes

# Dump configuration
	dump            d1 all custom 25000 coexistence_W-Mo.dump id type element x y z xu yu zu vx vy vz
	dump_modify     d1 element W Mo

# ----- EQUILIBRATION AT Ti -----
	minimize 1e-25 1e-25 5000 10000
Step          Temp          Press          PotEng         KinEng         TotEng         Volume        Density        Enthalpy       c_msd[1]       c_msd[2]       c_msd[3]
0   3147.3145      737794.18     -12116.362      4067.8164     -8048.5456      172623.26      13.463879      71443.593      0              0              0
Loop time of 3.99845 on 40 procs for 2307 steps with 10000 atoms

Minimization stats:
  Stopping criterion = energy tolerance
  Energy initial, next-to-last, final =
  Force two-norm initial, final = 224306.09 4.4897918e-05
  Force max component initial, final = 94125.607 1.3486957e-05
  Final line search alpha, max atom move = 1 1.3486957e-05
  Iterations, force evaluations = 2307 4350

	fix             feq all npt temp 4000 4000 0.1 aniso 1 1 1
	run             1000000    # 1 ns
Step          Temp          Press          PotEng         KinEng         TotEng         Volume        Density        Enthalpy       c_msd[1]       c_msd[2]       c_msd[3]
2307   3147.3145     -272.33714     -76281.705      4067.8164     -72213.888      172623.26      13.463879     -72243.231      0.70611361     0.21605454     0.21504173
Averages over the last 501 of 1002 rows, steps 503000 to 1002307:
Temp Press PotEng KinEng TotEng Volume Density Enthalpy c_msd[1] c_msd[2] c_msd[3]
3999.75 -38.1664 -72259 5169.57 -67089.4 173343 13.408 -67093.9 25.1195 15.9763 16.7486
Loop time of 967.491 on 40 procs for 1000000 steps with 10000 atoms

	unfix           feq

write_data	liq_or_sol.data nocoeff
System init for write_data ...
