# Styles
	units        metal
	atom_style   atomic
	pair_style   eam/fs

# Neighbour list
	neighbor        2.0 bin
	neigh_modify    check yes

# Boundary conditions
	boundary p p p

# ----------------- Atom Definition Section -----------------

read_data "W-Mo_en_min.data"
Reading data file ...
  orthogonal box = (0.046127475 0.046127475 0.11531869) to (31.603873 31.603873 79.009681)
  reading atom labelmap ...
  reading atoms ...
  5000 atoms
  reading velocities ...
  5000 velocities

# ----------------- Settings Section -----------------

include "annealing.in.settings"
# ----- SETTINGS -----
# Forcefield
	pair_coeff * * W-Mo.eam.fs W Mo

# Collection of atoms
	group alloy type  1 2
5000 atoms in group alloy

# ----------------- Run Section -----------------

include "annealing.in.run"
# Thermo output
	thermo          1000
	thermo_style    custom step temp press pe ke etotal vol density
	thermo_modify   flush yes

# Dump configuration
	dump            d1 all custom 50000 annealed_system.dump id type x y z xu yu zu vx vy vz
	dump_modify     d1 element W Mo

# ----- INITIAL EQUILIBRATION AT Ti -----
	velocity        all create 300 872392 dist gaussian
	fix             feq all npt temp 300 300 0.1 iso 1 1 1
	run             200000    # 200 ps
Step          Temp          Press          PotEng         KinEng         TotEng         Volume        Density
0   300            2635.34       -39329.129      193.85144     -39135.277      78570.207      14.790458
Averages over the last 101 of 201 rows, steps 100000 to 200000:
Temp Press PotEng KinEng TotEng Volume Density
300.341 142.423 -39132.6 194.072 -38938.5 79558 14.6068
Loop time of 104.063 on 40 procs for 200000 steps with 5000 atoms

	unfix           feq

# ----- HEATING FROM Ti TO Thigh -----
	fix             fheat all npt temp 300 2300 0.1 iso 1 1 1
	run             1000000   # 1 ns
Step          Temp          Press          PotEng         KinEng         TotEng         Volume        Density
200000   307.38512      1324.9027     -39133.434      198.62349     -38934.81       79531.702      14.61165
Averages over the last 501 of 1001 rows, steps 700000 to 1200000:
Temp Press PotEng KinEng TotEng Volume Density
1798.91 94.0469 -38089.3 1162.4 -36926.8 82819.6 14.0321
Loop time of 545.937 on 40 procs for 1000000 steps with 5000 atoms

	unfix           fheat

# ----- HOLD AT Thigh -----
	fix             fholdhigh all npt temp 2300 2300 0.1 iso 1 1 1
	run             1000000   # 1 ns
Step          Temp          Press          PotEng         KinEng         TotEng         Volume        Density
1200000   2335.0383      430.91177     -37718.085      1508.8351     -36209.25       83629.198      13.895737
Averages over the last 501 of 1001 rows, steps 1700000 to 2200000:
Temp Press PotEng KinEng TotEng Volume Density
2298.98 267.475 -37698.1 1485.53 -36212.6 83689.5 13.8858
Loop time of 528.225 on 40 procs for 1000000 steps with 5000 atoms

	unfix           fholdhigh

# ----- COOLING LOOP FROM Thigh DOWN TO Tfinal IN STEPS OF Tstep -----
Cooling from 2300 K down to 300 K in 4 steps of 500 K each.

	variable i loop 4
	label loop_cool
	  variable Tstart equal 2300-(1-1)*500
	  variable Tend   equal 2300-1*500

Cooling step 1: 2300 K to 1800 K

	  fix  fcool all npt temp 2300 1800 0.1 iso 1 1 1
	  run  1000000    # 1 ns per cooling segment
Step          Temp          Press          PotEng         KinEng         TotEng         Volume        Density
2200000   2299.6537     -1295.498      -37682.821      1485.9706     -36196.851      83780.499      13.870643
Averages over the last 501 of 1001 rows, steps 2700000 to 3200000:
Temp Press PotEng KinEng TotEng Volume Density
1923.1 80.2875 -37995.6 1242.65 -36752.9 83054.1 13.992
Loop time of 533.559 on 40 procs for 1000000 steps with 5000 atoms

	  unfix fcool

	  next i
	jump SELF loop_cool
	  variable Tstart equal 2300-(2-1)*500
	  variable Tend   equal 2300-2*500

Cooling step 2: 1800 K to 1300 K

	  fix  fcool all npt temp 1800 1300 0.1 iso 1 1 1
	  run  1000000    # 1 ns per cooling segment
Step          Temp          Press          PotEng         KinEng         TotEng         Volume        Density
3200000   1786.0391     -1251.8622     -38091.369      1154.0875     -36937.281      82898.271      14.018258
Averages over the last 501 of 1001 rows, steps 3700000 to 4200000:
Temp Press PotEng KinEng TotEng Volume Density
1424.39 -63.5872 -38371.8 920.4 -37451.4 82147.6 14.1464
Loop time of 548.064 on 40 procs for 1000000 steps with 5000 atoms

	  unfix fcool

	  next i
	jump SELF loop_cool
	  variable Tstart equal 2300-(3-1)*500
	  variable Tend   equal 2300-3*500

Cooling step 3: 1300 K to 800 K

	  fix  fcool all npt temp 1300 800 0.1 iso 1 1 1
	  run  1000000    # 1 ns per cooling segment
Step          Temp          Press          PotEng         KinEng         TotEng         Volume        Density
4200000   1290.4781     -3410.8169     -38458.01       833.87013     -37624.14       82012.687      14.169629
Averages over the last 501 of 1001 rows, steps 4700000 to 5200000:
Temp Press PotEng KinEng TotEng Volume Density
925.366 5.724 -38722.5 597.945 -38124.6 81131.5 14.3236
Loop time of 535.825 on 40 procs for 1000000 steps with 5000 atoms

	  unfix fcool

	  next i
	jump SELF loop_cool
	  variable Tstart equal 2300-(4-1)*500
	  variable Tend   equal 2300-4*500

Cooling step 4: 800 K to 300 K

	  fix  fcool all npt temp 800 300 0.1 iso 1 1 1
	  run  1000000    # 1 ns per cooling segment
Step          Temp          Press          PotEng         KinEng         TotEng         Volume        Density
5200000   798.32923      1053.8646     -38808.058      515.85757     -38292.2        80816.151      14.37942
Averages over the last 501 of 1001 rows, steps 5700000 to 6200000:
Temp Press PotEng KinEng TotEng Volume Density
425.096 34.4435 -39052 274.685 -38777.3 79914.5 14.5417
Loop time of 497.883 on 40 procs for 1000000 steps with 5000 atoms

	  unfix fcool

	  next i
	jump SELF loop_cool

# ----- HOLD AT Tfinal -----
	fix             ffinal all npt temp 300 300 0.1 iso 1 1 1
	run             1000000   # 1 ns
Step          Temp          Press          PotEng         KinEng         TotEng         Volume        Density
6200000   295.67949      404.81542     -39131.94       191.05965     -38940.88       79553.539      14.607639
Averages over the last 501 of 1001 rows, steps 6700000 to 7200000:
Temp Press PotEng KinEng TotEng Volume Density
300.186 8.76461 -39132.6 193.972 -38938.6 79560.4 14.6064
Loop time of 480.846 on 40 procs for 1000000 steps with 5000 atoms

	unfix           ffinal

# ----- FINAL OUTPUT -----
	write_data      annealed_W-Mo.data
System init for write_data ...
